reduced_networks/case141/85pct/case141_reduced.m
%% case141_reduced -- Opti-KRON reduction of case141
%
%   141 buses reduced to 21 super-nodes (85.1% reduction), 20 branches.
%   Loads are scenario 1 of 1.
%
%   Equivalent branches come from the Kron-reduced admittance matrix, so a
%   negative resistance is possible and is not an error -- an equivalent
%   branch stands in for eliminated network, not for a conductor.
%
%   Bus map -- each super-node and the original buses it represents:
%     1 <- 1
%     2 <- 2 33 34
%     3 <- 3 4 5 35 36
%     6 <- 6 37
%     7 <- 7 8 88 111
%     9 <- 9 10 11 112 113
%     12 <- 12
%     13 <- 13 14 114 115 116 117
%     15 <- 15 16 17 18 19 118 119 120 121 122 123 124 131 132 133 134 135 136 137
%     20 <- 20 21
%     22 <- 22 23 24 25 26 27 28 29 30 31 32 138 139 140 141
%     38 <- 38 53
%     39 <- 39 40
%     41 <- 41
%     42 <- 42 54 55 56 57 58 59 60 61 62 63 69 70 71 72 73 74
%     43 <- 43 44 45 46 47 75 76 77 78 79 80 81 82 83
%     48 <- 48 49 50 51 52 84 85 86 87
%     64 <- 64 65 66 67 68
%     89 <- 89 96 97 98 99 100
%     90 <- 90 91 92 93 94 95 101 102 103 104 105 106 107 108 109 110
%     125 <- 125 126 127 128 129 130

function mpc = case141_reduced
mpc.version = '2';
mpc.baseMVA = 1;

%% bus data
%	bus_i	type	Pd	Qd	Gs	Bs	area	Vm	Va	baseKV	zone	Vmax	Vmin
mpc.bus = [
	1	3	-0	-0	0	0	1	1	0	1	1	1.1	0.9;
	2	1	0.012750000000000001	0.0079017403146395531	-4.9412450290699656e-11	2.2230964124786552e-11	1	1	0	1	1	1.1	0.9;
	3	1	0.038250000000000006	0.023705220943918658	1.9821408084371101e-12	-4.324992748781059e-12	1	1	0	1	1	1.1	0.9;
	6	1	0.0042500000000000003	0.0026339134382131848	-3.5798986854941748e-11	8.331758037879913e-11	1	1	0	1	1	1.1	0.9;
	7	1	0.014875000000000001	0.0092186970337461462	1.3670980734088916e-12	-1.1693251923447026e-12	1	1	0	1	1	1.1	0.9;
	9	1	0.049724999999999998	0.030816787227094262	2.0170234989860409e-13	-1.9375287200894096e-13	1	1	0	1	1	1.1	0.9;
	12	1	0.0021250000000000002	0.0013169567191065924	5.2116589914925039e-16	-2.7660805280870693e-14	1	1	0	1	1	1.1	0.9;
	13	1	0.037400000000000003	0.023178438256276024	8.1021982317156558e-13	1.7051314341832716e-12	1	1	0	1	1	1.1	0.9;
	15	1	0.067574999999999996	0.041879223667589643	1.9326762412674725e-12	-1.2789769243681803e-12	1	1	0	1	1	1.1	0.9;
	20	1	0.012750000000000001	0.0079017403146395531	-9.7827206799184617e-13	2.3670168753090033e-13	1	1	0	1	1	1.1	0.9;
	22	1	0.072250000000000009	0.044776528449624139	4.717632033133643e-10	-3.0640896196740235e-10	1	1	0	1	1	1.1	0.9;
	38	1	0.0085000000000000006	0.0052678268764263696	-2.8504123583400723e-10	4.5451503848371484e-11	1	1	0	1	1	1.1	0.9;
	39	1	0.0017000000000000001	0.0010535653752852738	-1.9325501272261377e-12	-2.0148476729642285e-11	1	1	0	1	1	1.1	0.9;
	41	1	0.0063750000000000005	0.0039508701573197766	-7.4406359822059134e-13	-7.628124425557868e-12	1	1	0	1	1	1.1	0.9;
	42	1	0.19762500000000002	0.12247697487691309	2.4488059572004764e-12	-3.176490653524689e-10	1	1	0	1	1	1.1	0.9;
	43	1	0.15278750000000002	0.094689188103763977	-1.8926500343092041e-10	1.6103262922511635e-10	1	1	0	1	1	1.1	0.9;
	48	1	0.11474999999999999	0.071115662831755994	-8.5452646493688252e-10	1.4720632872952461e-09	1	1	0	1	1	1.1	0.9;
	64	1	0.070125000000000021	0.043459571730517545	-1.9476771580472203e-10	1.9771608727836831e-10	1	1	0	1	1	1.1	0.9;
	89	1	0.069275000000000003	0.042932789042874911	2.0963245198437251e-12	4.583264234211842e-12	1	1	0	1	1	1.1	0.9;
	90	1	0.22971250000000001	0.14236302133542261	-3.473278996112122e-12	-7.870077143918584e-14	1	1	0	1	1	1.1	0.9;
	125	1	0.031662500000000003	0.019622655114688223	-6.6791017161449417e-13	9.2370555648813024e-14	1	1	0	1	1	1.1	0.9;
];

%% generator data
%	bus	Pg	Qg	Qmax	Qmin	Vg	mBase	status	Pmax	Pmin
mpc.gen = [
	1	0	0	9999	-9999	1	1	1	9999	-9999;
];

%% branch data
%	fbus	tbus	r	x	b	rateA	rateB	rateC	ratio	angle	status	angmin	angmax
mpc.branch = [
	1	2	0.0037105894563954295	0.0026302098573062925	0	0	0	0	0	0	1	-360	360;
	2	3	0.011093183383504531	0.0078649062481310397	0	0	0	0	0	0	1	-360	360;
	3	6	0.0010868104300360971	0.0007716997136350981	0	0	0	0	0	0	1	-360	360;
	6	7	0.003016059714123841	0.0040192693418494669	0	0	0	0	0	0	1	-360	360;
	6	38	0.013446867510091578	0.0097298472227491991	0	0	0	0	0	0	1	-360	360;
	7	9	0.0089067008615384274	0.0092603965636211764	0	0	0	0	0	0	1	-360	360;
	7	89	0.0041350242988947242	0.0055047912905970345	0	0	0	0	0	0	1	-360	360;
	9	12	0.012308610432479815	0.008707345102182705	0	0	0	0	0	0	1	-360	360;
	12	13	0.0078906295719188783	0.0055690996000666232	0	0	0	0	0	0	1	-360	360;
	13	15	0.0092925507183560102	0.006572309227792201	0	0	0	0	0	0	1	-360	360;
	15	20	0.018205682410841421	0.012758768598767003	0	0	0	0	0	0	1	-360	360;
	15	125	0.02741463232688765	0.019408247797922652	0	0	0	0	0	0	1	-360	360;
	20	22	0.0060321194282476655	0.0035562495136684017	0	0	0	0	0	0	1	-360	360;
	38	39	0.0060321194282476811	0.0042636409178339026	0	0	0	0	0	0	1	-360	360;
	39	41	0.0081350011479033261	0.0057555936975284419	0	0	0	0	0	0	1	-360	360;
	41	42	0.014906666135055837	0.010546562753008169	0	0	0	0	0	0	1	-360	360;
	42	43	0.0077620129529781473	0.0054919296287003075	0	0	0	0	0	0	1	-360	360;
	42	64	0.015575472553535565	0.011022444243088934	0	0	0	0	0	0	1	-360	360;
	43	48	0.0132539425816748	0.0094790448158177422	0	0	0	0	0	0	1	-360	360;
	89	90	0.0019228184531407662	0.0025594707168897072	0	0	0	0	0	0	1	-360	360;
];
